10
conf1
N -0.0623601772 -0.0000000000 -2.4788104403 
H -0.6758191291 0.8117574240 -2.5098225518  
H -0.6758191291 -0.8117574240 -2.5098225518 
C 0.7139877813 -0.0000000000 -1.2533248738  
H 1.3783670903 0.8770536242 -1.2314490882   
H 1.3783670903 -0.8770536242 -1.2314490882  
C -0.0880829590 0.0000000000 0.0428069440   
O -1.2956296091 0.0000000000 0.1288197035   
O 0.7274393619 -0.0000000000 1.1303315329   
H 0.1573089297 -0.0000000000 1.9169040038   
10
conf2
N  -0.0731918598 -1.7902627991 -0.0645244867
H   0.1297751311 -2.4973706766 0.6342542459
H  -0.0202777677 -2.2327063997 -0.9769926845
C   0.8144785294 -0.6219342690 0.0410008709
H   1.3442543320 -0.6270760091 1.0031157798
H   1.5809880116 -0.5796992417 -0.7451334308
C   0.0228118811 0.6928108610 -0.0163529149
O   0.5556505097 1.7762841744 -0.0601080055
O   -1.3108572836 0.5285509906 0.0021293024
H   -1.4487251839 -0.4470935509 0.0308648133
10
conf3
N -0.0376420323 -1.9333587794 -0.0060672954 
H -0.6582086696 -1.9688645531 0.7987229893  
H -0.6308573749 -1.9673924662 -0.8313181399 
C 0.7711338311 -0.7261715422 0.0086157602   
H 1.4504923215 -0.7270842071 -0.8561816497  
H 1.4221212660 -0.7304135277 0.8952329481   
C 0.0816065393 0.6363645768 0.0006164099    
O 0.6704360607 1.6947505745 -0.0051685091   
O -1.2752675574 0.5559310426 0.0026708830   
H -1.6051861245 1.4700063918 -0.0008079363  
10
conf4
N -0.0050341058 -0.2909695607 0.0991027948
H -0.3919072832 0.1894024461 0.9088340339
H -0.5117342578 0.0120228574 -0.7270724627
C  1.4181196317 -0.0065456129 -0.0215007695
H  1.9162574091 -0.7739131441 -0.6315495614
H  1.6626749606 0.9706797075 -0.4848250078
C  2.0712209353 0.0204726767 1.3420480327
O  1.4895750783 0.1660192228 2.3939452176
O  3.4204448469 -0.0963485330 1.2551855906
H  3.7706027850 -0.0199000599 2.1580121319
10
conf5
N -0.0582109549 -0.2009108618 0.1076729726 
H -0.4975644680 0.5412960205 0.6465109188  
H -0.4613669637 -0.1820926328 -0.8254662856
C 1.3896274220 -0.0123272432 0.0365922819  
H 1.8406042609 -0.8323333581 -0.5346940502 
H 1.7122256880 0.9338460846 -0.4446958540  
C 2.0550648707 -0.0146608547 1.3978593320  
O 3.1833535595 -0.3953594691 1.6156104589  
O 1.2663583963 0.5268303073 2.3622615947   
H 1.7824081892 0.5159020072 3.1852386308   
10
conf6
N -0.2897475752 -0.0000000000 -2.4455415245
H  0.3150814378 -0.8110426542 -2.5596651360
H  0.3150814378 0.8110426542 -2.5596651360
C -0.8786468623 -0.0000000000 -1.1210714345
H -1.5319881374 -0.8819038221 -1.0150355143
H -1.5319881374 0.8819038221 -1.0150355143
C  0.1106468567 -0.0000000000 0.0504964209
O  1.3090627838 -0.0000000000 -0.0692541847
O -0.4497350843 0.0000000000 1.2954654185
H -1.4163713195 0.0000000000 1.2368204150
10
conf7
N 0.1325461399 -0.0000000000 2.4175525343   
H 0.6646948557 0.8428770478 2.5940099618    
H 0.6646948557 -0.8428770478 2.5940099618   
C -0.7156774338 0.0000000000 1.2413046838   
H -1.3772788945 0.8770001336 1.2705298191   
H -1.3772788945 -0.8770001336 1.2705298191  
C -0.0659690446 -0.0000000000 -0.1525561981 
O -0.7155260219 -0.0000000000 -1.1688156358 
O 1.2898495214 0.0000000000 -0.1883954505   
H 1.6178739065 0.0000000000 0.7265738744    
10
conf8
N  0.0038892741 -0.2851916258 -0.0110501634
H -0.4110729570 0.0432455579 0.8595666935
H -0.4613917887 0.1759155399 -0.7864125892
C  1.4323116543 -0.0097613984 0.0003947467
H  1.9769167640 -0.7892158719 -0.5606484593
H  1.7112805353 0.9620783138 -0.4534950228
C  1.9609095417 0.0311954623 1.4280216490
O  1.2612755643 0.1519587063 2.4017509475
O  3.3133925038 -0.0382672851 1.5641523424
H  3.7378289082 -0.1707673989 0.7042498556
10
sp13
N 0.034330405 1.932993431 -0.008513920  
H 0.668127310 1.955460237 0.788257674 	
H 0.603456637 1.984521516 -0.851111563 	
C -0.769628189 0.706382031 0.005311472 	
H -1.379307497 0.697393487 0.917167987 	
H -1.432718228 0.708624019 -0.868082976 
C 0.082124740 -0.556431989 0.008215911 	
O 0.640834090 -1.019811467 0.978977523 	
O 0.214755851 -1.095215031 -1.234447652 
H 0.805623969 -1.862334328 -1.146797274 
10
sp14
N   -0.156675868 -1.857005761 -0.154451462
H    0.404917814 -1.641609802 -0.976501688
H    0.360373280 -2.522534870 0.410661158
C   -0.437455048 -0.630435723 0.582786647
H    0.073739432 -0.581049408 1.559488938
H   -1.514331266 -0.526646945 0.797926474
C   -0.017166715 0.602579614 -0.187441918
O    0.612001800 0.603168325 -1.222866376
O   -0.433621735 1.740724682 0.421836512
H   -0.123639710 2.483826566 -0.121765842
10
sp15
N -1.643283034 0.963404478 0.227310461 	
H -1.679224381 1.388725420 -0.696229831 	
H -2.601660042 0.893249001 0.556403510 	
C -1.029013344 -0.366854485 0.164298376 	
H -1.381436984 -1.003159409 -0.663469308 	
H -1.234938351 -0.887383103 1.109698996 	
C 0.488542809 -0.244367386 0.070535799 	
O 1.214671563 0.293723337 0.872678773 		
O 0.962285332 -0.841586758 -1.058475658 	
H 1.928523158 -0.733862315 -1.042755580 	
10
sp16
N 1.880852466 0.467416915 -0.326334352
H 1.804904281 0.597127472 -1.333382485
H 2.119514278 -0.513536097 -0.193730341
C 0.617526901 0.772429439 0.317158437
H 0.725301254 0.683755977 1.411450741
H 0.344736987 1.823554606 0.135381716
C -0.572450092 -0.092627478 -0.087376243
O -0.519831099 -1.019851038 -0.852206369
O -1.775493665 0.337084339 0.451374798
H -1.946838491 -0.009333319 1.337390735
10
sp23
N -0.105399190 -1.806005947 0.083353386   
H -0.800454123 -1.881309014 -0.655959665 
H 0.425378276 -2.673612996 0.076662981     
C 0.791004642 -0.670814793 -0.163185237   
H 1.673230565 -0.750325498 0.482830370     
H 1.161250776 -0.591659659 -1.204678853   
C 0.122182866 0.657502749 0.154847337       
O 0.705084129 1.619353222 0.586292394       
O -1.209830130 0.707777168 -0.202260085   
H -1.806114599 0.470813862 0.521168494     
10
sp25
N -6.738427365 -3.343747629 -3.262944534
H -7.747691464 -3.232609364 -3.305612306
H -6.332044239 -2.569731661 -3.783756541
C -6.268045708 -3.336988623 -1.868212216
H -6.980215906 -3.910354101 -1.257564183
H -6.147112171 -2.335666598 -1.428486447
C -4.914623718 -4.034597776 -1.794305605
O -3.889036778 -3.485349463 -1.476008075
O -4.975236284 -5.381119587 -2.070850596
H -4.782933442 -5.593301931 -2.994626529
10
sp26
N -1.835274747 0.499642959 -0.992614158   
H -2.745454867 0.076042140 -0.839826265   
H -1.371084306 -0.071049755 -1.694495154  
C -1.076721504 0.564598569 0.275549649    
H -0.724708142 1.598299620 0.441740861    
H -1.710456387 0.290741005 1.125701279    
C 0.133539227 -0.360545257 0.305217831    
O 0.287745316 -1.276117934 1.072099259    
O 1.086415418 -0.103436969 -0.643542469   
H 0.876095832 0.704505787 -1.134608048    
10
sp27
N   -1.356778197 0.080772636 -0.607794345
H   -1.326788747 -0.063675865 -1.605570766
H   -2.033959194 -0.478483851 -0.111830031
C   -0.164045562 0.520277189 0.078921391
H     0.295406198 1.352450464 -0.472803383
H   -0.432480929 0.925490606 1.064696744
C     0.957062178 -0.503754250 0.325308087
O     1.983265471 -0.215964320 0.891054325
O     0.729481581 -1.757854279 -0.130694059
H   -0.150001132 -1.765248910 -0.549114418
10
sp28
N 1.689201112 0.367663386 0.777643502     
H 2.598031278 0.815170851 0.685979255     
H 1.209247195 0.818018120 1.555018400     
C 0.908180108 0.539256661 -0.454120347    
H 0.725779997 1.589579102 -0.742913788    
H 1.449127010 0.050702377 -1.278353436    
C -0.463923434 -0.095132278 -0.230417817  
O -1.306476601 0.413907532 0.466566184    
O -0.708718148 -1.286484746 -0.8378574380 
H 0.077662626 -1.587679109 -1.313437180   
10
sp35
N   -1.819758410 0.685181596 0.493267187
H   -2.611138769 0.103173508 0.747933973
H   -1.223461665 0.756872890 1.312614853
C   -1.089752999 0.116554898 -0.641897811
H   -1.182174054 0.755031247 -1.535877867
H   -1.478693207 -0.872827077 -0.934358284
C   0.401119147 -0.083651562 -0.447603890
O   1.174266337 -0.346565795 -1.340891110
O   0.803773168 0.052559412 0.844268813
H   1.764341869 -0.094607374 0.849730152
10
sp37
N -3.316300110 -0.423103002 -0.569773206 	
H -3.251268208 -1.330831841 -1.020998223 	
H -3.432299170 -0.563079618 0.429936689 	
C -2.182047835 0.439411308 -0.883222138 	
H -2.333481956 1.425143336 -0.427235049 	
H -2.147787304 0.587308042 -1.974079048 	
C -0.796153078 -0.040143661 -0.449881952 	
O 0.022233467 0.655875573 0.092798927       	
O -0.491230718 -1.340758701 -0.828350677 	
H -0.797082040 -2.006307270 -0.197358958 	
10
sp48
N -0.515696350 -1.735207741 0.576481991
H   0.301442673 -2.051078870 0.058077888
H -0.557644848 -2.249388208 1.451027593
C -0.430475332 -0.301072120 0.813559331
H -1.431700474 0.157481509 0.839934437
H   0.053132575 -0.025843465 1.773092970
C   0.370238795 0.396807657 -0.263978334
O   1.032380158 -0.166910134 -1.095625664
O   0.221729396 1.772645278 -0.259771785
H   0.815309352 2.215485204 0.361534458
10
sp57
N -1.461728648 -0.278150090 1.025762635   
H -1.295413414 -1.277903574 1.113052400   
H -2.464148677 -0.131183218 1.106893204   
C -0.974850779 0.231586049 -0.257250538   
H -1.412857247 -0.274981435 -1.143698485 
H -1.196828340 1.302944982 -0.329213047   
C 0.533791870 0.080628460 -0.369437462     
O 1.292855262 0.963109486 -0.664797183     
O 0.999978227 -1.186874443 -0.038917331   
H 0.939222074 -1.804531558 -0.781572983   
10
sp67
N -1.968365941 0.551574271 -0.499144268
H -1.977736410 1.417162502 0.034477792
H -1.733260287 0.785183436 -1.460879238
C -1.050702868 -0.451577361 0.044782372
H -1.186039382 -1.388549609 -0.507978509
H -1.320673844 -0.640041648 1.095915775
C 0.440681359 -0.110653458 -0.038996364
O 1.237234149 -0.718749846 -0.708978805
O 0.861550558 0.971404922 0.685025998
H 0.137290713 1.340649163 1.209209021
10
sp68
N -1.361495370 -0.411960291 -0.405608216
H -1.992898552 -0.003410647 0.282676328
H -1.518984624 0.056865812 -1.291621586
C 0.011082933 -0.251016012 0.053154510
H 0.588011919 0.470263238 -0.553587348
H 0.556813560 -1.211082411 -0.001252735
C 0.070916811 0.239969091 1.494836421
O -0.886276662 0.627151878 2.117272668
O 1.301597289 0.230195922 2.075489413
H 1.964905454 -0.133362530 1.471007600
