6
complex
H -0.607747 0.778192 0.411962 
C 0.405770 0.507151 0.229205 
N 1.502730 0.214426 0.032521 
O 4.232480 -0.712614 1.391644 
O 4.537833 -0.118558 0.337003 
O 4.538532 1.129663 0.355852 
6
transition
H 0.018274 0.043003 0.012087 
C 0.047303 0.177516 1.072783 
N -0.085795 -0.288150 2.158544 
O 0.311607 1.448946 3.162328 
O 1.128620 1.901614 2.301471 
O 0.548736 1.946881 1.121641 
6
product
H 0.711462 0.127204 0.920390 
C 1.731537 0.251785 0.606685 
N 2.103606 0.611663 -0.546755 
O 2.698921 0.066908 1.538466 
O 3.878103 0.003219 0.719905 
O 3.485970 0.737481 -0.480504